/*
** svn $Id$
*******************************************************************************
** Copyright (c) 2002-2009 The ROMS/TOMS Group
**
**   Licensed under a MIT/X style license
**
**   See License_ROMS.txt
**
*******************************************************************************
**
**  Options for Ross Sea Model
*/

#define UV_ADV
#define DJ_GRADPS
#define UV_QDRAG
#define UV_VIS2
#define UV_COR
#define TS_DIF2
#define TS_U3HADVECTION
#define TS_C4VADVECTION  /* Subject to change */
#undef  TS_SVADVECTION
#define T_PASSIVE
#define SALINITY
#define NONLIN_EOS
#undef  JM2006_EOS
#define SOLVE3D
#define ANA_SRFLUX
#undef  ANA_SPFLUX       /* Passive surface tracer flux...may change */
#define ANA_BTFLUX
#define ANA_BSFLUX
#undef  ANA_BPFLUX       /* Passive bottom tracer flux...may change */
#define MIX_S_UV         /* Note: This is different from old Ross */
#define MIX_GEO_TS
#define LMD_MIXING
#define LMD_RIMIX
#define LMD_CONVEC
#define LMD_SKPP
#define LMD_NONLOCAL
#undef  LMD_BKPP
#undef  LMD_SHAPIRO

#undef  RADIATION_2D     /* Think about this */

#define NORTH_M2RADIATION  /* May change to FLATHER to match SOGLOBEC */
#define NORTH_M3RADIATION
#define NORTH_FSGRADIENT   /* May change to CHAPMAN to match SOGLOBEC */
#define NORTH_TRADIATION
#define NORTH_M2NUDGING
#define NORTH_TNUDGING
#define NORTH_AICLAMPED
#define NORTH_HICLAMPED
#define NORTH_HSNCLAMPED
#define NORTH_MIGRADIENT
#define NORTH_TIGRADIENT      /* different between gradient and closed */
#define NORTH_SFWATGRADIENT   /* same between gradient and closed */
#define NORTH_AGEICEGRADIENT  /* diff */
#define NORTH_SIG11GRADIENT   /* same */
#define NORTH_SIG22GRADIENT   /* same */
#define NORTH_SIG12GRADIENT   /* same */

#define SOUTHERN_WALL

#define EAST_M2RADIATION    /* see above */
#define EAST_M3RADIATION
#define EAST_FSGRADIENT     /* see above */
#define EAST_TRADIATION
#define EAST_M2NUDGING
#define EAST_TNUDGING
#define EAST_AICLAMPED
#define EAST_HICLAMPED
#define EAST_HSNCLAMPED
#define EAST_MIGRADIENT
#define EAST_TIGRADIENT      /* different between gradient and closed */
#define EAST_SFWATGRADIENT   /* same between gradient and closed */
#define EAST_AGEICEGRADIENT  /* diff */
#define EAST_SIG11GRADIENT   /* same */
#define EAST_SIG22GRADIENT   /* same */
#define EAST_SIG12GRADIENT   /* same */

#define WEST_M2RADIATION     /* see above */
#define WEST_M3RADIATION
#define WEST_FSGRADIENT      /* see above */
#define WEST_TRADIATION
#define WEST_M2NUDGING
#define WEST_TNUDGING
#define WEST_AICLAMPED
#define WEST_HICLAMPED
#define WEST_HSNCLAMPED
#define WEST_MIGRADIENT
#define WEST_TIGRADIENT      /* different between gradient and closed */
#define WEST_SFWATGRADIENT   /* same between gradient and closed */
#define WEST_AGEICEGRADIENT  /* diff */
#define WEST_SIG11GRADIENT   /* same */
#define WEST_SIG22GRADIENT   /* same */
#define WEST_SIG12GRADIENT   /* same */

#define EAST_VOLCONS
#define WEST_VOLCONS
#define NORTH_VOLCONS

#define SPLINES
#define MASKING
#define TCLIMATOLOGY
#define TCLM_NUDGING

#define ICE_MODEL
#ifdef ICE_MODEL
# define ICE_THERMO
#  define ICE_MK
#  undef  ICE_ALB_EC92   /* fancier albedo calculation */
#  define ICE_CONVSNOW  /* turn on later and check later */
# define ICE_MOMENTUM
#  undef  ICE_MOM_BULK
#  define ICE_EVP
# define ICE_ADVECT
#  define ICE_SMOLAR
#  define ICE_UPWIND
# undef  ICE_SMOOTH
# define ANA_HIOBC
# define ANA_HSNOBC
#endif

#define BULK_FLUXES
#ifdef BULK_FLUXES
# ifdef ICE_MODEL
#  define ICE_BULK_FLUXES
# endif
# define LONGWAVE
# define EMINUSP
# define SOLAR_SOURCE
# define CLOUDS
#endif

#define STATIONS
#define ICESHELF
#define ICESHELF_3EQ
#define AVERAGES
#define AVERAGES_FLUXES
#define FORWARD_WRITE   /* for 2d volume fluxes...may flush */
#undef  FILTERED        /* may want to play with this later */
#undef  FLOATS
#undef  DIAGNOSTICS_UV
#define DIAGNOSTICS_TS
#undef  CURVGRID        /* not needed here...be careful with wind rotation */

