ROMS/TOMS Framework: May 17, 2012
===================

Copyright (c) 2002-2012 The ROMS/TOMS Group
  Licensed under a MIT/X style license
  See License_ROMS.txt

svn: $HeadURL: https://www.myroms.org/svn/src/trunk/ROMS/Version $
svn: $LastChangedBy: arango $
svn: $LastChangedRevision: 618 $
svn: $LastChangedDate: 2012-05-17 16:12:51 -0400 (Thu, 17 May 2012) $
